LI9_A_361
prProtoss 05262513403D 1   1.00000     0.00000     0
Protoss beta proteinsplus
 65 69  0  0  0  0            999 V2000
    6.5990    0.1370   15.2950 F   0  0  0  0  0  0  0  0  0  0  0  0
    3.0970   -3.8030   18.8770 O   0  0  0  0  0  0  0  0  0  0  0  0
    0.2420   -6.7070   20.8160 N   0  3  0  0  0  0  0  0  0  0  0  0
    3.3840    3.1140   21.8130 N   0  0  0  0  0  0  0  0  0  0  0  0
    3.5370    2.4650   23.9890 N   0  0  0  0  0  0  0  0  0  0  0  0
    3.2280    0.8200   22.3590 N   0  0  0  0  0  0  0  0  0  0  0  0
    2.1780   -1.7310   21.4660 N   0  0  0  0  0  0  0  0  0  0  0  0
    2.1750   -2.9890   20.8490 N   0  0  0  0  0  0  0  0  0  0  0  0
    1.5760   -1.6340   22.7780 C   0  0  0  0  0  0  0  0  0  0  0  0
    3.7960    2.3060   26.4050 C   0  0  0  0  0  0  0  0  0  0  0  0
   -0.5900   -5.5720   21.2130 C   0  0  0  0  0  0  0  0  0  0  0  0
    1.5360   -6.6780   21.4960 C   0  0  0  0  0  0  0  0  0  0  0  0
    3.2290    2.8090   20.5140 C   0  0  0  0  0  0  0  0  0  0  0  0
   -0.3270   -0.4290   25.6950 C   0  0  0  0  0  0  0  0  0  0  0  0
   -0.2990    0.7500   24.9650 C   0  0  0  0  0  0  0  0  0  0  0  0
    0.8460   -0.9520   26.2220 C   0  0  0  0  0  0  0  0  0  0  0  0
    4.5650   -0.8100   16.0060 C   0  0  0  0  0  0  0  0  0  0  0  0
    6.2850   -0.0910   17.5860 C   0  0  0  0  0  0  0  0  0  0  0  0
    3.0690    1.5140   20.0850 C   0  0  0  0  0  0  0  0  0  0  0  0
    0.0810   -4.2770   20.7600 C   0  0  0  0  0  0  0  0  0  0  0  0
    2.3150   -5.4200   21.1320 C   0  0  0  0  0  0  0  0  0  0  0  0
    0.9180    1.4030   24.7670 C   0  0  0  0  0  0  0  0  0  0  0  0
    2.0630   -0.3090   26.0290 C   0  0  0  0  0  0  0  0  0  0  0  0
    3.7370   -1.2240   17.0600 C   0  0  0  0  0  0  0  0  0  0  0  0
    5.4490   -0.5080   18.6240 C   0  0  0  0  0  0  0  0  0  0  0  0
    3.3780    2.1050   22.6890 C   0  0  0  0  0  0  0  0  0  0  0  0
    5.8100   -0.2570   16.2890 C   0  0  0  0  0  0  0  0  0  0  0  0
    2.8950   -2.9020   19.6670 C   0  0  0  0  0  0  0  0  0  0  0  0
    3.4450    1.5650   25.0990 C   0  0  1  0  0  0  0  0  0  0  0  0
    3.0750    0.5310   21.0580 C   0  0  0  0  0  0  0  0  0  0  0  0
    1.4800   -4.1590   21.3750 C   0  0  0  0  0  0  0  0  0  0  0  0
    2.9080   -0.8680   20.6510 C   0  0  0  0  0  0  0  0  0  0  0  0
    2.1050    0.8860   25.2920 C   0  0  0  0  0  0  0  0  0  0  0  0
    4.1820   -1.0730   18.3820 C   0  0  0  0  0  0  0  0  0  0  0  0
    3.3810   -1.4790   19.5430 C   0  0  0  0  0  0  0  0  0  0  0  0
    0.3920   -6.6716   19.8279 H   0  0  0  0  0  0  0  0  0  0  0  0
    3.7320    3.4261   24.1847 H   0  0  0  0  0  0  0  0  0  0  0  0
    1.6420   -0.6917   23.1062 H   0  0  0  0  0  0  0  0  0  0  0  0
    0.6140   -1.9015   22.7239 H   0  0  0  0  0  0  0  0  0  0  0  0
    2.0559   -2.2418   23.4107 H   0  0  0  0  0  0  0  0  0  0  0  0
    3.7299    1.6724   27.1758 H   0  0  0  0  0  0  0  0  0  0  0  0
    4.7284    2.6626   26.3456 H   0  0  0  0  0  0  0  0  0  0  0  0
    3.1573    3.0635   26.5404 H   0  0  0  0  0  0  0  0  0  0  0  0
   -0.6941   -5.5649   22.2075 H   0  0  0  0  0  0  0  0  0  0  0  0
   -1.4900   -5.6505   20.7842 H   0  0  0  0  0  0  0  0  0  0  0  0
    2.0663   -7.4812   21.2246 H   0  0  0  0  0  0  0  0  0  0  0  0
    1.3866   -6.6957   22.4846 H   0  0  0  0  0  0  0  0  0  0  0  0
    3.2301    3.5469   19.8391 H   0  0  0  0  0  0  0  0  0  0  0  0
   -1.1947   -0.9037   25.8421 H   0  0  0  0  0  0  0  0  0  0  0  0
   -1.1428    1.1283   24.5843 H   0  0  0  0  0  0  0  0  0  0  0  0
    0.8149   -1.8024   26.7473 H   0  0  0  0  0  0  0  0  0  0  0  0
    4.2627   -0.9116   15.0582 H   0  0  0  0  0  0  0  0  0  0  0  0
    7.1837    0.3085   17.7667 H   0  0  0  0  0  0  0  0  0  0  0  0
    2.9538    1.2927   19.1166 H   0  0  0  0  0  0  0  0  0  0  0  0
   -0.4743   -3.4982   21.0518 H   0  0  0  0  0  0  0  0  0  0  0  0
    0.1579   -4.2766   19.7630 H   0  0  0  0  0  0  0  0  0  0  0  0
    2.5683   -5.4618   20.1655 H   0  0  0  0  0  0  0  0  0  0  0  0
    3.1424   -5.3758   21.6918 H   0  0  0  0  0  0  0  0  0  0  0  0
    0.9410    2.2535   24.2416 H   0  0  0  0  0  0  0  0  0  0  0  0
    2.9025   -0.6943   26.4120 H   0  0  0  0  0  0  0  0  0  0  0  0
    2.8394   -1.6224   16.8712 H   0  0  0  0  0  0  0  0  0  0  0  0
    5.7598   -0.4021   19.5686 H   0  0  0  0  0  0  0  0  0  0  0  0
    4.1299    0.8488   24.9647 H   0  0  0  0  0  0  0  0  0  0  0  0
    1.3762   -4.0407   22.3625 H   0  0  0  0  0  0  0  0  0  0  0  0
   -0.2310   -7.5561   21.0511 H   0  0  0  0  0  0  0  0  0  0  0  0
  1 27  1  0  0  0  0
  2 28  2  0  0  0  0
  3 11  1  0  0  0  0
  3 12  1  0  0  0  0
  4 13  1  0  0  0  0
  4 26  2  0  0  0  0
  5 26  1  0  0  0  0
  5 29  1  0  0  0  0
  6 26  1  0  0  0  0
  6 30  2  0  0  0  0
  7  8  1  0  0  0  0
  7  9  1  0  0  0  0
  7 32  1  0  0  0  0
  8 28  1  0  0  0  0
  8 31  1  0  0  0  0
 10 29  1  0  0  0  0
 11 20  1  0  0  0  0
 12 21  1  0  0  0  0
 13 19  2  0  0  0  0
 14 15  2  0  0  0  0
 14 16  1  0  0  0  0
 15 22  1  0  0  0  0
 16 23  2  0  0  0  0
 17 24  2  0  0  0  0
 17 27  1  0  0  0  0
 18 25  1  0  0  0  0
 18 27  2  0  0  0  0
 19 30  1  0  0  0  0
 20 31  1  0  0  0  0
 21 31  1  0  0  0  0
 22 33  2  0  0  0  0
 23 33  1  0  0  0  0
 24 34  1  0  0  0  0
 25 34  2  0  0  0  0
 28 35  1  0  0  0  0
 29 33  1  0  0  0  0
 30 32  1  0  0  0  0
 32 35  2  0  0  0  0
 34 35  1  0  0  0  0
  3 36  1  0  0  0  0
  5 37  1  0  0  0  0
  9 38  1  0  0  0  0
  9 39  1  0  0  0  0
  9 40  1  0  0  0  0
 10 41  1  0  0  0  0
 10 42  1  0  0  0  0
 10 43  1  0  0  0  0
 11 44  1  0  0  0  0
 11 45  1  0  0  0  0
 12 46  1  0  0  0  0
 12 47  1  0  0  0  0
 13 48  1  0  0  0  0
 14 49  1  0  0  0  0
 15 50  1  0  0  0  0
 16 51  1  0  0  0  0
 17 52  1  0  0  0  0
 18 53  1  0  0  0  0
 19 54  1  0  0  0  0
 20 55  1  0  0  0  0
 20 56  1  0  0  0  0
 21 57  1  0  0  0  0
 21 58  1  0  0  0  0
 22 59  1  0  0  0  0
 23 60  1  0  0  0  0
 24 61  1  0  0  0  0
 25 62  1  0  0  0  0
 29 63  1  0  0  0  0
 31 64  1  0  0  0  0
  3 65  1  0  0  0  0
M  CHG  1   3   1
M  END
$$$$
