JE2_A_701
prProtoss 04252509503D 1   1.00000     0.00000     0
Protoss beta proteinsplus
 78 81  0  0  0  0            999 V2000
   22.7750   -4.7050   16.1440 S   0  0  0  0  0  0  0  0  0  0  0  0
   19.3600   -4.5020   16.7210 O   0  0  0  0  0  0  0  0  0  0  0  0
   22.0690   -0.9900   18.9430 O   0  0  0  0  0  0  0  0  0  0  0  0
   19.2990   -1.8640   14.2880 O   0  0  0  0  0  0  0  0  0  0  0  0
   25.8560    2.4460   20.5620 O   0  0  0  0  0  0  0  0  0  0  0  0
   20.5210    0.5820   14.7460 O   0  0  0  0  0  0  0  0  0  0  0  0
   18.5680   -5.5610   14.7910 N   0  0  0  0  0  0  0  0  0  0  0  0
   20.9700    0.6590   17.7570 N   0  0  0  0  0  0  0  0  0  0  0  0
   21.1050   -2.9230   15.1300 N   0  0  0  0  0  0  0  0  0  0  0  0
   16.0130   -3.5750   15.4200 C   0  0  0  0  0  0  0  0  0  0  0  0
   24.8990    0.3740   18.9300 C   0  0  0  0  0  0  0  0  0  0  0  0
   22.7450   -4.7600   13.3790 C   0  0  0  0  0  0  0  0  0  0  0  0
   21.5620   -6.6380   14.5150 C   0  0  0  0  0  0  0  0  0  0  0  0
   22.3900   -2.9470   15.9220 C   0  0  0  0  0  0  0  0  0  0  0  0
   17.4260   -6.2060   15.4830 C   0  0  0  0  0  0  0  0  0  0  0  0
   17.3240    1.4600   20.8120 C   0  0  0  0  0  0  0  0  0  0  0  0
   17.6770    2.4080   19.8380 C   0  0  0  0  0  0  0  0  0  0  0  0
   17.3750    0.1040   20.4720 C   0  0  0  0  0  0  0  0  0  0  0  0
   13.7360   -5.7470   13.2960 C   0  0  0  0  0  0  0  0  0  0  0  0
   14.3650   -6.9590   13.3090 C   0  0  0  0  0  0  0  0  0  0  0  0
   22.3390    3.4320   20.7260 C   0  0  0  0  0  0  0  0  0  0  0  0
   23.6870    3.4480   20.9470 C   0  0  0  0  0  0  0  0  0  0  0  0
   18.0940    2.0320   18.5210 C   0  0  0  0  0  0  0  0  0  0  0  0
   17.7970   -0.2950   19.2130 C   0  0  0  0  0  0  0  0  0  0  0  0
   14.2670   -4.6240   13.9790 C   0  0  0  0  0  0  0  0  0  0  0  0
   15.5770   -7.0730   14.0280 C   0  0  0  0  0  0  0  0  0  0  0  0
   21.7270    2.3540   20.0240 C   0  0  0  0  0  0  0  0  0  0  0  0
   18.6860    0.1940   16.8740 C   0  0  0  0  0  0  0  0  0  0  0  0
   19.4740   -4.7460   15.4830 C   0  0  0  0  0  0  0  0  0  0  0  0
   21.8480    0.2670   18.6660 C   0  0  0  0  0  0  0  0  0  0  0  0
   20.3600   -1.7850   14.9420 C   0  0  0  0  0  0  0  0  0  0  0  0
   24.5000    2.3990   20.4240 C   0  0  0  0  0  0  0  0  0  0  0  0
   20.8680   -0.5040   15.6030 C   0  0  2  0  0  0  0  0  0  0  0  0
   20.1730   -0.3620   16.9800 C   0  0  1  0  0  0  0  0  0  0  0  0
   18.1480    0.6370   18.2120 C   0  0  0  0  0  0  0  0  0  0  0  0
   20.6350   -4.2260   14.6100 C   0  0  2  0  0  0  0  0  0  0  0  0
   15.4800   -4.7310   14.6670 C   0  0  0  0  0  0  0  0  0  0  0  0
   16.1360   -5.9810   14.6820 C   0  0  0  0  0  0  0  0  0  0  0  0
   23.9500    1.3580   19.6050 C   0  0  0  0  0  0  0  0  0  0  0  0
   22.5330    1.3470   19.4330 C   0  0  0  0  0  0  0  0  0  0  0  0
   21.8980   -5.1370   14.5960 C   0  0  0  0  0  0  0  0  0  0  0  0
   26.2843    3.2181   21.0314 H   0  0  0  0  0  0  0  0  0  0  0  0
   21.2624    0.7425   14.0944 H   0  0  0  0  0  0  0  0  0  0  0  0
   18.6942   -5.7107   13.8104 H   0  0  0  0  0  0  0  0  0  0  0  0
   20.8337    1.6344   17.5839 H   0  0  0  0  0  0  0  0  0  0  0  0
   16.8815   -3.8270   15.8469 H   0  0  0  0  0  0  0  0  0  0  0  0
   16.1590   -2.8085   14.7946 H   0  0  0  0  0  0  0  0  0  0  0  0
   15.3589   -3.3079   16.1277 H   0  0  0  0  0  0  0  0  0  0  0  0
   24.3703   -0.2872   18.3977 H   0  0  0  0  0  0  0  0  0  0  0  0
   25.5186    0.8715   18.3229 H   0  0  0  0  0  0  0  0  0  0  0  0
   25.4306   -0.1077   19.6267 H   0  0  0  0  0  0  0  0  0  0  0  0
   22.2530   -5.0019   12.5426 H   0  0  0  0  0  0  0  0  0  0  0  0
   22.9227   -3.7760   13.3885 H   0  0  0  0  0  0  0  0  0  0  0  0
   23.6129   -5.2558   13.4104 H   0  0  0  0  0  0  0  0  0  0  0  0
   21.0855   -6.8271   13.6564 H   0  0  0  0  0  0  0  0  0  0  0  0
   22.4072   -7.1712   14.5516 H   0  0  0  0  0  0  0  0  0  0  0  0
   20.9752   -6.8902   15.2844 H   0  0  0  0  0  0  0  0  0  0  0  0
   23.1217   -2.4883   15.4179 H   0  0  0  0  0  0  0  0  0  0  0  0
   22.2648   -2.5004   16.8079 H   0  0  0  0  0  0  0  0  0  0  0  0
   17.3236   -5.8089   16.3950 H   0  0  0  0  0  0  0  0  0  0  0  0
   17.5990   -7.1876   15.5643 H   0  0  0  0  0  0  0  0  0  0  0  0
   17.0427    1.7476   21.7275 H   0  0  0  0  0  0  0  0  0  0  0  0
   17.6357    3.3793   20.0724 H   0  0  0  0  0  0  0  0  0  0  0  0
   17.1042   -0.5850   21.1443 H   0  0  0  0  0  0  0  0  0  0  0  0
   12.8782   -5.6491   12.7914 H   0  0  0  0  0  0  0  0  0  0  0  0
   13.9793   -7.7437   12.8237 H   0  0  0  0  0  0  0  0  0  0  0  0
   21.7747    4.1865   21.0612 H   0  0  0  0  0  0  0  0  0  0  0  0
   24.1015    4.1910   21.4725 H   0  0  0  0  0  0  0  0  0  0  0  0
   18.3393    2.7220   17.8400 H   0  0  0  0  0  0  0  0  0  0  0  0
   17.8545   -1.2720   19.0077 H   0  0  0  0  0  0  0  0  0  0  0  0
   13.7737   -3.7542   13.9689 H   0  0  0  0  0  0  0  0  0  0  0  0
   16.0418   -7.9575   14.0669 H   0  0  0  0  0  0  0  0  0  0  0  0
   20.7310    2.3071   19.9479 H   0  0  0  0  0  0  0  0  0  0  0  0
   18.0967   -0.5287   16.5129 H   0  0  0  0  0  0  0  0  0  0  0  0
   18.6775    0.9744   16.2488 H   0  0  0  0  0  0  0  0  0  0  0  0
   21.8601   -0.5469   15.7205 H   0  0  0  0  0  0  0  0  0  0  0  0
   20.1783   -1.2394   17.4597 H   0  0  0  0  0  0  0  0  0  0  0  0
   20.3094   -4.1050   13.6723 H   0  0  0  0  0  0  0  0  0  0  0  0
  1 14  1  0  0  0  0
  1 41  1  0  0  0  0
  2 29  2  0  0  0  0
  3 30  2  0  0  0  0
  4 31  2  0  0  0  0
  5 32  1  0  0  0  0
  6 33  1  0  0  0  0
  7 15  1  0  0  0  0
  7 29  1  0  0  0  0
  8 30  1  0  0  0  0
  8 34  1  0  0  0  0
  9 14  1  0  0  0  0
  9 31  1  0  0  0  0
  9 36  1  0  0  0  0
 10 37  1  0  0  0  0
 11 39  1  0  0  0  0
 12 41  1  0  0  0  0
 13 41  1  0  0  0  0
 15 38  1  0  0  0  0
 16 17  2  0  0  0  0
 16 18  1  0  0  0  0
 17 23  1  0  0  0  0
 18 24  2  0  0  0  0
 19 20  2  0  0  0  0
 19 25  1  0  0  0  0
 20 26  1  0  0  0  0
 21 22  1  0  0  0  0
 21 27  2  0  0  0  0
 22 32  2  0  0  0  0
 23 35  2  0  0  0  0
 24 35  1  0  0  0  0
 25 37  2  0  0  0  0
 26 38  2  0  0  0  0
 27 40  1  0  0  0  0
 28 34  1  0  0  0  0
 28 35  1  0  0  0  0
 29 36  1  0  0  0  0
 30 40  1  0  0  0  0
 31 33  1  0  0  0  0
 32 39  1  0  0  0  0
 33 34  1  0  0  0  0
 36 41  1  0  0  0  0
 37 38  1  0  0  0  0
 39 40  2  0  0  0  0
  5 42  1  0  0  0  0
  6 43  1  0  0  0  0
  7 44  1  0  0  0  0
  8 45  1  0  0  0  0
 10 46  1  0  0  0  0
 10 47  1  0  0  0  0
 10 48  1  0  0  0  0
 11 49  1  0  0  0  0
 11 50  1  0  0  0  0
 11 51  1  0  0  0  0
 12 52  1  0  0  0  0
 12 53  1  0  0  0  0
 12 54  1  0  0  0  0
 13 55  1  0  0  0  0
 13 56  1  0  0  0  0
 13 57  1  0  0  0  0
 14 58  1  0  0  0  0
 14 59  1  0  0  0  0
 15 60  1  0  0  0  0
 15 61  1  0  0  0  0
 16 62  1  0  0  0  0
 17 63  1  0  0  0  0
 18 64  1  0  0  0  0
 19 65  1  0  0  0  0
 20 66  1  0  0  0  0
 21 67  1  0  0  0  0
 22 68  1  0  0  0  0
 23 69  1  0  0  0  0
 24 70  1  0  0  0  0
 25 71  1  0  0  0  0
 26 72  1  0  0  0  0
 27 73  1  0  0  0  0
 28 74  1  0  0  0  0
 28 75  1  0  0  0  0
 33 76  1  0  0  0  0
 34 77  1  0  0  0  0
 36 78  1  0  0  0  0
M  END
$$$$
CL_A_902
prProtoss 04252509503D 1   1.00000     0.00000     0
Protoss beta proteinsplus
  1  0  0  0  0  0            999 V2000
   35.6110   -8.7120    9.1700 Cl  0  5  0  0  0  0  0  0  0  0  0  0
M  CHG  1   1  -1
M  END
$$$$
CL_A_905
prProtoss 04252509503D 1   1.00000     0.00000     0
Protoss beta proteinsplus
  1  0  0  0  0  0            999 V2000
   33.4930   10.5610   17.8900 Cl  0  5  0  0  0  0  0  0  0  0  0  0
M  CHG  1   1  -1
M  END
$$$$
EDO_A_801
prProtoss 04252509503D 1   1.00000     0.00000     0
Protoss beta proteinsplus
 10  9  0  0  0  0            999 V2000
   30.7010   -7.7420   11.0330 O   0  0  0  0  0  0  0  0  0  0  0  0
   28.8650   -9.0880   10.0950 O   0  0  0  0  0  0  0  0  0  0  0  0
   30.7070   -7.5890    9.6170 C   0  0  0  0  0  0  0  0  0  0  0  0
   29.6090   -8.4850    9.0270 C   0  0  0  0  0  0  0  0  0  0  0  0
   29.9874   -8.3917   11.2951 H   0  0  0  0  0  0  0  0  0  0  0  0
   28.9361  -10.0834   10.0302 H   0  0  0  0  0  0  0  0  0  0  0  0
   31.5973   -7.8612    9.2519 H   0  0  0  0  0  0  0  0  0  0  0  0
   30.5273   -6.6343    9.3799 H   0  0  0  0  0  0  0  0  0  0  0  0
   28.9953   -7.9334    8.4621 H   0  0  0  0  0  0  0  0  0  0  0  0
   30.0266   -9.1995    8.4657 H   0  0  0  0  0  0  0  0  0  0  0  0
  1  3  1  0  0  0  0
  2  4  1  0  0  0  0
  3  4  1  0  0  0  0
  1  5  1  0  0  0  0
  2  6  1  0  0  0  0
  3  7  1  0  0  0  0
  3  8  1  0  0  0  0
  4  9  1  0  0  0  0
  4 10  1  0  0  0  0
M  END
$$$$
EDO_A_803
prProtoss 04252509503D 1   1.00000     0.00000     0
Protoss beta proteinsplus
 10  9  0  0  0  0            999 V2000
   42.8010    1.5140   31.8840 O   0  0  0  0  0  0  0  0  0  0  0  0
   43.9970    2.8840   29.5390 O   0  0  0  0  0  0  0  0  0  0  0  0
   43.8810    0.9960   31.0970 C   0  0  0  0  0  0  0  0  0  0  0  0
   43.7980    1.4430   29.6450 C   0  0  0  0  0  0  0  0  0  0  0  0
   42.8238    2.5135   31.8644 H   0  0  0  0  0  0  0  0  0  0  0  0
   43.2903    3.3576   30.0645 H   0  0  0  0  0  0  0  0  0  0  0  0
   43.8527   -0.0031   31.1288 H   0  0  0  0  0  0  0  0  0  0  0  0
   44.7451    1.3174   31.4843 H   0  0  0  0  0  0  0  0  0  0  0  0
   44.5050    0.9738   29.1158 H   0  0  0  0  0  0  0  0  0  0  0  0
   42.8972    1.2079   29.2798 H   0  0  0  0  0  0  0  0  0  0  0  0
  1  3  1  0  0  0  0
  2  4  1  0  0  0  0
  3  4  1  0  0  0  0
  1  5  1  0  0  0  0
  2  6  1  0  0  0  0
  3  7  1  0  0  0  0
  3  8  1  0  0  0  0
  4  9  1  0  0  0  0
  4 10  1  0  0  0  0
M  END
$$$$
EDO_A_804
prProtoss 04252509503D 1   1.00000     0.00000     0
Protoss beta proteinsplus
 10  9  0  0  0  0            999 V2000
   44.4590    1.9680    9.5240 O   0  0  0  0  0  0  0  0  0  0  0  0
   44.0300    4.6440    8.0010 O   0  0  0  0  0  0  0  0  0  0  0  0
   43.7690    3.1590    9.9340 C   0  0  0  0  0  0  0  0  0  0  0  0
   43.0800    3.9540    8.8510 C   0  0  0  0  0  0  0  0  0  0  0  0
   45.1743    2.2066    8.8672 H   0  0  0  0  0  0  0  0  0  0  0  0
   43.5371    5.1576    7.2986 H   0  0  0  0  0  0  0  0  0  0  0  0
   44.4374    3.7603   10.3718 H   0  0  0  0  0  0  0  0  0  0  0  0
   43.0740    2.8914   10.6013 H   0  0  0  0  0  0  0  0  0  0  0  0
   42.5359    3.3311    8.2889 H   0  0  0  0  0  0  0  0  0  0  0  0
   42.4784    4.6290    9.2782 H   0  0  0  0  0  0  0  0  0  0  0  0
  1  3  1  0  0  0  0
  2  4  1  0  0  0  0
  3  4  1  0  0  0  0
  1  5  1  0  0  0  0
  2  6  1  0  0  0  0
  3  7  1  0  0  0  0
  3  8  1  0  0  0  0
  4  9  1  0  0  0  0
  4 10  1  0  0  0  0
M  END
$$$$
EDO_A_805
prProtoss 04252509503D 1   1.00000     0.00000     0
Protoss beta proteinsplus
 10  9  0  0  0  0            999 V2000
   16.0020    7.8270   -3.4680 O   0  0  0  0  0  0  0  0  0  0  0  0
   16.9330   10.3860   -4.3840 O   0  0  0  0  0  0  0  0  0  0  0  0
   16.9140    8.6500   -2.7580 C   0  0  0  0  0  0  0  0  0  0  0  0
   16.5270   10.1260   -3.0370 C   0  0  0  0  0  0  0  0  0  0  0  0
   15.5098    7.2418   -2.8236 H   0  0  0  0  0  0  0  0  0  0  0  0
   16.7077   11.3304   -4.6237 H   0  0  0  0  0  0  0  0  0  0  0  0
   17.8470    8.4764   -3.0734 H   0  0  0  0  0  0  0  0  0  0  0  0
   16.8528    8.4606   -1.7780 H   0  0  0  0  0  0  0  0  0  0  0  0
   15.5397   10.2516   -2.9402 H   0  0  0  0  0  0  0  0  0  0  0  0
   17.0042   10.7368   -2.4052 H   0  0  0  0  0  0  0  0  0  0  0  0
  1  3  1  0  0  0  0
  2  4  1  0  0  0  0
  3  4  1  0  0  0  0
  1  5  1  0  0  0  0
  2  6  1  0  0  0  0
  3  7  1  0  0  0  0
  3  8  1  0  0  0  0
  4  9  1  0  0  0  0
  4 10  1  0  0  0  0
M  END
$$$$
CL_B_901
prProtoss 04252509503D 1   1.00000     0.00000     0
Protoss beta proteinsplus
  1  0  0  0  0  0            999 V2000
    0.0000   10.3860   -4.3840 Cl  0  5  0  0  0  0  0  0  0  0  0  0
M  CHG  1   1  -1
M  END
$$$$
CL_B_903
prProtoss 04252509503D 1   1.00000     0.00000     0
Protoss beta proteinsplus
  1  0  0  0  0  0            999 V2000
   -1.9010    0.6200   23.0070 Cl  0  5  0  0  0  0  0  0  0  0  0  0
M  CHG  1   1  -1
M  END
$$$$
CL_B_904
prProtoss 04252509503D 1   1.00000     0.00000     0
Protoss beta proteinsplus
  1  0  0  0  0  0            999 V2000
    7.7160   -6.4460    4.3500 Cl  0  5  0  0  0  0  0  0  0  0  0  0
M  CHG  1   1  -1
M  END
$$$$
EDO_B_802
prProtoss 04252509503D 1   1.00000     0.00000     0
Protoss beta proteinsplus
 10  9  0  0  0  0            999 V2000
    3.6850  -10.2170   22.5970 O   0  0  0  0  0  0  0  0  0  0  0  0
    5.1570   -8.3630   23.6120 O   0  0  0  0  0  0  0  0  0  0  0  0
    5.1300  -10.4130   22.5870 C   0  0  0  0  0  0  0  0  0  0  0  0
    5.7230   -9.0150   22.5120 C   0  0  0  0  0  0  0  0  0  0  0  0
    3.2390  -11.0029   22.1687 H   0  0  0  0  0  0  0  0  0  0  0  0
    5.0666   -7.3876   23.4111 H   0  0  0  0  0  0  0  0  0  0  0  0
    5.4048  -10.9534   21.7917 H   0  0  0  0  0  0  0  0  0  0  0  0
    5.4267  -10.8751   23.4227 H   0  0  0  0  0  0  0  0  0  0  0  0
    6.7197   -9.0446   22.5876 H   0  0  0  0  0  0  0  0  0  0  0  0
    5.4668   -8.5631   21.6575 H   0  0  0  0  0  0  0  0  0  0  0  0
  1  3  1  0  0  0  0
  2  4  1  0  0  0  0
  3  4  1  0  0  0  0
  1  5  1  0  0  0  0
  2  6  1  0  0  0  0
  3  7  1  0  0  0  0
  3  8  1  0  0  0  0
  4  9  1  0  0  0  0
  4 10  1  0  0  0  0
M  END
$$$$
